-- Prepared by Mohammad Sadegh Sharafi, PhD in PE at AUT(Tehran Polytechnic)
-- 1: Fractured Model 
-- 2: Block Center Grid Type  
-- 3: GRAVITY DRAINAGE 
-- Emails: s.sharafi@aut.ac.ir    ;   sadeghsharafi89@yahoo.com

RUNSPEC
TITLE
Fractured Model

DIMENS
    5    5    8  /

DUALPORO

OIL

GAS

FIELD

EQLDIMS
    1  100     /

TABDIMS
    2    1  /

GRAVDR

IMPES

WELLDIMS
    4   40    2   4 /

START
   1 'JAN' 2000  /
   
FMTOUT

EXTRAPMS
3 /

GRID      ==============================================================

INIT

GRIDFILE
2 1/

NEWTRAN

DX
200*10/

DY
200*10/

DZ
200*15/

PERMX
  100*10  100*5000/

PERMY
  100*10  100*5000/

PERMZ
  100*1  100*4000/
  
PORO
  100*0.19 100*0.01/

EQUALS
 'TOPS'   4000      1  5  1  5  1  1  /
 'TOPS'   4000      1  5  1  5  5  5  /
/

SIGMAV
   0.05000000E+00   0.17000000E+00   0.17000000E+00   0.08000000E+00
   0.12000000E+00   0.12000000E+00   0.12000000E+00   0.05000000E+00
   0.08000000E+00   0.08000000E+00   0.17000000E+00   0.12000000E+00   
   0.05000000E+00   0.05000000E+00   0.17000000E+00   0.10000000E+00   
   0.12000000E+00   0.12000000E+00   0.05000000E+00   0.08000000E+00   
   0.12000000E+00   0.12000000E+00   0.12000000E+00   0.05000000E+00
   0.12000000E+00   0.05000000E+00   0.10000000E+00   0.12000000E+00
   0.05000000E+00   0.12000000E+00   0.12000000E+00   0.12000000E+00   
   0.12000000E+00   0.10000000E+00   0.08000000E+00   0.12000000E+00   
   0.12000000E+00   0.12000000E+00   0.05000000E+00   0.05000000E+00
   0.08000000E+00   0.08000000E+00   0.12000000E+00   0.17000000E+00
   0.05000000E+00   0.05000000E+00   0.12000000E+00   0.12000000E+00
   0.11000000E+00   0.11000000E+00   0.11000000E+00   0.05000000E+00   
   0.12000000E+00   0.17000000E+00   0.08000000E+00   0.12000000E+00   
   0.13000000E+00   0.17000000E+00   0.05000000E+00   0.12000000E+00
   0.12000000E+00   0.12000000E+00   0.12000000E+00   0.12000000E+00
   0.08000000E+00   0.05000000E+00   0.12000000E+00   0.08000000E+00
   0.05000000E+00   0.12000000E+00   0.12000000E+00   0.05000000E+00   
   0.14000000E+00   0.12000000E+00   0.08000000E+00   0.12000000E+00   
   0.12000000E+00   0.08000000E+00   0.05000000E+00   0.17000000E+00
   0.12000000E+00   0.05000000E+00   0.12000000E+00   0.12000000E+00
   0.08000000E+00   0.12000000E+00   0.12000000E+00   0.08000000E+00
   0.05000000E+00   0.12000000E+00   0.08000000E+00   0.05000000E+00   
   0.16000000E+00   0.12000000E+00   0.05000000E+00   0.12000000E+00   
   0.17000000E+00   0.17000000E+00   0.17000000E+00   0.17000000E+00
/   
   
DZMTRXV
   0.15000000E+02   0.10000000E+02   0.14000000E+02   0.13000000E+02
   0.14000000E+02   0.15000000E+02   0.15000000E+02   0.16000000E+02
   0.15000000E+02   0.11000000E+02   0.15000000E+02   0.15000000E+02
   0.13000000E+02   0.15000000E+02   0.15000000E+02   0.13000000E+02
   0.15000000E+02   0.13000000E+02   0.13000000E+02   0.12000000E+02
   0.11000000E+02   0.15000000E+02   0.15000000E+02   0.14000000E+02
   0.15000000E+02   0.13000000E+02   0.13000000E+02   0.15000000E+02
   0.15000000E+02   0.15000000E+02   0.15000000E+02   0.13000000E+02
   0.15000000E+02   0.15000000E+02   0.13000000E+02   0.15000000E+02
   0.14000000E+02   0.15000000E+02   0.15000000E+02   0.14000000E+02
   0.13000000E+02   0.13000000E+02   0.15000000E+02   0.15000000E+02
   0.12000000E+02   0.12000000E+02   0.13000000E+02   0.14000000E+02
   0.14000000E+02   0.12000000E+02   0.15000000E+02   0.15000000E+02
   0.13000000E+02   0.11000000E+02   0.13000000E+02   0.15000000E+02
   0.15000000E+02   0.11000000E+02   0.15000000E+02   0.13000000E+02
   0.15000000E+02   0.11000000E+02   0.12000000E+02   0.15000000E+02
   0.13000000E+02   0.11000000E+02   0.15000000E+02   0.14000000E+02
   0.14000000E+02   0.11000000E+02   0.15000000E+02   0.15000000E+02
   0.12000000E+02   0.15000000E+02   0.13000000E+02   0.13000000E+02
   0.12000000E+02   0.14000000E+02   0.15000000E+02   0.15000000E+02
   0.15000000E+02   0.15000000E+02   0.14000000E+02   0.14000000E+02
   0.14000000E+02   0.15000000E+02   0.15000000E+02   0.15000000E+02
   0.14000000E+02   0.15000000E+02   0.13000000E+02   0.15000000E+02
   0.13000000E+02   0.13000000E+02   0.13000000E+02   0.13000000E+02
   0.13000000E+02   0.13000000E+02   0.13000000E+02   0.13000000E+02
/

RPTGRID
 TRANX TRANY TRANZ  /

PROPS     ==============================================================

SGOF
--  Sg      Krg       Krog    Pcog
    0.00    0.0000    0.80    0.00
    0.01    0.0008    0.77    0.02
    0.02    0.0041    0.74    0.08
    0.03    0.0132    0.70    0.23          
    0.05    0.0488    0.65    0.49
    0.09    0.1600    0.50    0.91
    0.15    0.3100    0.40    1.11
    0.25    0.5100    0.30    1.28
    0.40    0.6800    0.20    1.41
    0.60    0.8100    0.10    1.53
    0.70    0.9600    0.05    1.62
	0.80    1.0000    0.00    1.80  /
    0.00    0.00      1.00    0.00
    0.50	0.50      0.50    0.00
	1.00    1.00      0.00    0.00  /

PVDO
14.7 1.0041 1.161
1200 1.0040 1.164
2000 1.0039 1.167
2800 1.0038 1.172
3600 1.0037 1.177
4400 1.0036 1.181
5200 1.0035 1.185
5600 1.0034 1.192 /

PVDG      
 14.7000  2.33000  0.01500 
 1674.00  1.98000  0.01620
 2031.00  1.62000  0.01710
 3530.00  1.30000  0.01840
 4991.00  1.11000  0.01970
 5553.00  0.95900  0.02130
/

ROCK
2900  0.000066/

DENSITY
 52.0000  64.0000   0.04 /

REGIONS     ============================================================

EQUALS                                     
'SATNUM' 1 ,  1,  5  ,  1,  5  ,  1,  4  /
'SATNUM' 2 ,  1,  5  ,  1,  5  ,  5,  8  /
/


SOLUTION   =============================================================

PRESSURE
   0.38991011E+04   0.38991011E+04   0.38991011E+04   0.38991011E+04
   0.38991011E+04   0.38991011E+04   0.38991011E+04   0.38991011E+04
   0.38991011E+04   0.38991011E+04   0.38991011E+04   0.38991011E+04
   0.38991011E+04   0.38991011E+04   0.38991011E+04   0.38991011E+04
   0.38991011E+04   0.38991011E+04   0.38991011E+04   0.38991011E+04
   0.38991011E+04   0.38991011E+04   0.38991011E+04   0.38991011E+04
   0.38991011E+04   0.39044946E+04   0.39044946E+04   0.39044946E+04
   0.39044946E+04   0.39044946E+04   0.39044946E+04   0.39044946E+04
   0.39044946E+04   0.39044946E+04   0.39044946E+04   0.39044946E+04
   0.39044946E+04   0.39044946E+04   0.39044946E+04   0.39044946E+04
   0.39044946E+04   0.39044946E+04   0.39044946E+04   0.39044946E+04
   0.39044946E+04   0.39044946E+04   0.39044946E+04   0.39044946E+04
   0.39044946E+04   0.39044946E+04   0.39098879E+04   0.39098879E+04
   0.39098879E+04   0.39098879E+04   0.39098879E+04   0.39098879E+04
   0.39098879E+04   0.39098879E+04   0.39098879E+04   0.39098879E+04
   0.39098879E+04   0.39098879E+04   0.39098879E+04   0.39098879E+04
   0.39098879E+04   0.39098879E+04   0.39098879E+04   0.39098879E+04
   0.39098879E+04   0.39098879E+04   0.39098879E+04   0.39098879E+04
   0.39098879E+04   0.39098879E+04   0.39098879E+04   0.39152815E+04
   0.39152815E+04   0.39152815E+04   0.39152815E+04   0.39152815E+04
   0.39152815E+04   0.39152815E+04   0.39152815E+04   0.39152815E+04
   0.39152815E+04   0.39152815E+04   0.39152815E+04   0.39152815E+04
   0.39152815E+04   0.39152815E+04   0.39152815E+04   0.39152815E+04
   0.39152815E+04   0.39152815E+04   0.39152815E+04   0.39152815E+04
   0.39152815E+04   0.39152815E+04   0.39152815E+04   0.39152815E+04

   0.38999009E+04   0.38999009E+04   0.38999009E+04   0.38999009E+04
   0.38999009E+04   0.38999009E+04   0.38999009E+04   0.38999009E+04
   0.38999009E+04   0.38999009E+04   0.38999009E+04   0.38999009E+04
   0.38999009E+04   0.38999009E+04   0.38999009E+04   0.38999009E+04
   0.38999009E+04   0.38999009E+04   0.38999009E+04   0.38999009E+04
   0.38999009E+04   0.38999009E+04   0.38999009E+04   0.38999009E+04
   0.38999009E+04   0.39044946E+04   0.39044946E+04   0.39044946E+04
   0.39044946E+04   0.39044946E+04   0.39044946E+04   0.39044946E+04
   0.39044946E+04   0.39044946E+04   0.39044946E+04   0.39044946E+04
   0.39044946E+04   0.39044946E+04   0.39044946E+04   0.39044946E+04
   0.39044946E+04   0.39044946E+04   0.39044946E+04   0.39044946E+04
   0.39044946E+04   0.39044946E+04   0.39044946E+04   0.39044946E+04
   0.39044946E+04   0.39044946E+04   0.39098879E+04   0.39098879E+04
   0.39098879E+04   0.39098879E+04   0.39098879E+04   0.39098879E+04
   0.39098879E+04   0.39098879E+04   0.39098879E+04   0.39098879E+04
   0.39098879E+04   0.39098879E+04   0.39098879E+04   0.39098879E+04
   0.39098879E+04   0.39098879E+04   0.39098879E+04   0.39098879E+04
   0.39098879E+04   0.39098879E+04   0.39098879E+04   0.39098879E+04
   0.39098879E+04   0.39098879E+04   0.39098879E+04   0.39152815E+04
   0.39152815E+04   0.39152815E+04   0.39152815E+04   0.39152815E+04
   0.39152815E+04   0.39152815E+04   0.39152815E+04   0.39152815E+04
   0.39152815E+04   0.39152815E+04   0.39152815E+04   0.39152815E+04
   0.39152815E+04   0.39152815E+04   0.39152815E+04   0.39152815E+04
   0.39152815E+04   0.39152815E+04   0.39152815E+04   0.39152815E+04
   0.39152815E+04   0.39152815E+04   0.39152815E+04   0.39152815E+04
/
     
SGAS
   0.31879258E+00   0.31879258E+00   0.31879258E+00   0.31879258E+00
   0.31879258E+00   0.31879258E+00   0.31879258E+00   0.31879258E+00
   0.31879258E+00   0.31879258E+00   0.31879258E+00   0.31879258E+00
   0.31879258E+00   0.31879258E+00   0.31879258E+00   0.31879258E+00
   0.31879258E+00   0.31879258E+00   0.31879258E+00   0.31879258E+00
   0.31879258E+00   0.31879258E+00   0.31879258E+00   0.31879258E+00
   0.31879258E+00   0.00000000E+00   0.00000000E+00   0.00000000E+00
   0.00000000E+00   0.00000000E+00   0.00000000E+00   0.00000000E+00
   0.00000000E+00   0.00000000E+00   0.00000000E+00   0.00000000E+00
   0.00000000E+00   0.00000000E+00   0.00000000E+00   0.00000000E+00
   0.00000000E+00   0.00000000E+00   0.00000000E+00   0.00000000E+00
   0.00000000E+00   0.00000000E+00   0.00000000E+00   0.00000000E+00
   0.00000000E+00   0.00000000E+00   0.00000000E+00   0.00000000E+00
   0.00000000E+00   0.00000000E+00   0.00000000E+00   0.00000000E+00
   0.00000000E+00   0.00000000E+00   0.00000000E+00   0.00000000E+00
   0.00000000E+00   0.00000000E+00   0.00000000E+00   0.00000000E+00
   0.00000000E+00   0.00000000E+00   0.00000000E+00   0.00000000E+00
   0.00000000E+00   0.00000000E+00   0.00000000E+00   0.00000000E+00
   0.00000000E+00   0.00000000E+00   0.00000000E+00   0.00000000E+00
   0.00000000E+00   0.00000000E+00   0.00000000E+00   0.00000000E+00
   0.00000000E+00   0.00000000E+00   0.00000000E+00   0.00000000E+00
   0.00000000E+00   0.00000000E+00   0.00000000E+00   0.00000000E+00
   0.00000000E+00   0.00000000E+00   0.00000000E+00   0.00000000E+00
   0.00000000E+00   0.00000000E+00   0.00000000E+00   0.00000000E+00
   0.00000000E+00   0.00000000E+00   0.00000000E+00   0.00000000E+00
   0.69999999E+00   0.69999999E+00   0.69999999E+00   0.69999999E+00
   0.69999999E+00   0.69999999E+00   0.69999999E+00   0.69999999E+00
   0.69999999E+00   0.69999999E+00   0.69999999E+00   0.69999999E+00
   0.69999999E+00   0.69999999E+00   0.69999999E+00   0.69999999E+00
   0.69999999E+00   0.69999999E+00   0.69999999E+00   0.69999999E+00
   0.69999999E+00   0.69999999E+00   0.69999999E+00   0.69999999E+00
   0.69999999E+00   0.00000000E+00   0.00000000E+00   0.00000000E+00
   0.00000000E+00   0.00000000E+00   0.00000000E+00   0.00000000E+00
   0.00000000E+00   0.00000000E+00   0.00000000E+00   0.00000000E+00
   0.00000000E+00   0.00000000E+00   0.00000000E+00   0.00000000E+00
   0.00000000E+00   0.00000000E+00   0.00000000E+00   0.00000000E+00
   0.00000000E+00   0.00000000E+00   0.00000000E+00   0.00000000E+00
   0.00000000E+00   0.00000000E+00   0.00000000E+00   0.00000000E+00
   0.00000000E+00   0.00000000E+00   0.00000000E+00   0.00000000E+00
   0.00000000E+00   0.00000000E+00   0.00000000E+00   0.00000000E+00
   0.00000000E+00   0.00000000E+00   0.00000000E+00   0.00000000E+00
   0.00000000E+00   0.00000000E+00   0.00000000E+00   0.00000000E+00
   0.00000000E+00   0.00000000E+00   0.00000000E+00   0.00000000E+00
   0.00000000E+00   0.00000000E+00   0.00000000E+00   0.00000000E+00
   0.00000000E+00   0.00000000E+00   0.00000000E+00   0.00000000E+00
   0.00000000E+00   0.00000000E+00   0.00000000E+00   0.00000000E+00
   0.00000000E+00   0.00000000E+00   0.00000000E+00   0.00000000E+00
   0.00000000E+00   0.00000000E+00   0.00000000E+00   0.00000000E+00
   0.00000000E+00   0.00000000E+00   0.00000000E+00   0.00000000E+00
   0.00000000E+00   0.00000000E+00   0.00000000E+00   0.00000000E+00 / 

RPTSOL 
 FIP=1/

RPTRST
BASIC=2/

SUMMARY

ALL

BPR
1 1 1 /
2 1 1 /
2 3 1 /
4 3 1 /
1 1 5 /
5 5 1 /
5 5 5 /
3 3 1 /
3 3 2 /
3 3 3 /
3 3 4 /
3 3 5 /
3 3 6 /
3 3 7 /
3 3 8 /
1 1 5 /
/

BSGAS
1 1 1 /
2 1 1 /
2 3 1 /
4 3 1 /
1 1 5 /
5 5 1 /
5 5 5 /
3 3 1 /
3 3 2 /
3 3 3 /
3 3 4 /
3 3 5 /
3 3 6 /
3 3 7 /
3 3 8 /
/

BSOIL
1 1 1 /
2 1 1 /
2 3 1 /
4 3 1 /
1 1 5 /
5 5 1 /
5 5 5 /
3 3 1 /
3 3 2 /
3 3 3 /
3 3 4 /
3 3 5 /
3 3 6 /
3 3 7 /
3 3 8 /
/

SCHEDULE   ===========================================================

WELSPECS
'P'  'G'   3   3  1*  'OIL'  /
/

COMPDAT                                          
'P'   3   3   6   6  'OPEN'   1*  1*  .5000  11.4   /
/


WCONPROD                                        
'P',   'OPEN',   'BHP'   5*   1500/
/


TSTEP
1000*0.001/
 
WCONPROD                                        
'P',   'OPEN',   'BHP'   5*   1500/
/

TSTEP
1000*0.001/

WCONPROD                                        
'P',   'OPEN',   'BHP'   5*   1500/
/

TSTEP
1000*0.001/

WCONPROD                                        
'P',   'OPEN',   'BHP'   5*   1500/
/

TSTEP
1000*0.001/

WCONPROD                                        
'P',   'OPEN',   'BHP'   5*   1500/
/

TSTEP
1000*0.002/

WCONPROD                                        
'P',   'OPEN',   'BHP'   5*   1500/
/

TSTEP
1000*0.004/


END
